
  xtb     07012100033D
 xtb: 6.4.1 (afa7bdf)
  4  3  0     0  0            999 V2000
    0.0000    0.0000   -0.1466 H   0  0  0  0  0  0  0  0  0  0  0  0
   -0.0000   -0.0000    0.9032 C   0  0  0  0  0  0  0  0  0  0  0  0
    0.0000    0.0000    2.0968 C   0  0  0  0  0  0  0  0  0  0  0  0
   -0.0000   -0.0000    3.1466 H   0  0  0  0  0  0  0  0  0  0  0  0
  1  2  1  0  0  0  0
  2  3  3  0  0  0  0
  3  4  1  0  0  0  0
M  END
